Note: can't find init file.

Circuit: ***** spice netlist for cell 'lab1' *****

binary raw file
Doing analysis at TEMP = 27.000000 and TNOM = 27.000000

No. of Data Columns : 4  

No. of Data Rows : 1
No. of Data Columns : 5  

Initial Transient Solution
--------------------------

Node                                   Voltage
----                                   -------
vin                                          0
node1                                        0
vout                                         0
v0#branch                                    0


No. of Data Rows : 343

Total elapsed time: 0.063 seconds.

Total DRAM available = 16267.054688 MB.
DRAM currently available = 11740.351563 MB.
Total ngspice program size = 15.464844 MB.

***** Operating Point Values (Generated from .op Statement) *****

                      vin = 0.000e+000
                      node1 = 0.000e+000
                      vout = 0.000e+000
                      i_v0 = 0.000e+000

***************** End of Operating Point Values ******************
