
Circuit: ***** spice netlist for cell 'lab6' *****

binary raw file
Doing analysis at TEMP = 27.000000 and TNOM = 27.000000

No. of Data Columns : 7  

No. of Data Rows : 1
No. of Data Columns : 8  

Initial Transient Solution
--------------------------

Node                                   Voltage
----                                   -------
n1                                           0
va                                           0
n2                                           0
vc                                           0
n0                                           0
l0#branch                                    0
v0#branch                                    0


No. of Data Rows : 50865

Total elapsed time: 0.443 seconds.

Total DRAM available = 16267.054688 MB.
DRAM currently available = 11296.734375 MB.
Total ngspice program size = 15.750000 MB.

***** Operating Point Values (Generated from .op Statement) *****

                      n1 = 0.000e+000
                      va = 0.000e+000
                      n2 = 0.000e+000
                      vc = 0.000e+000
                      n0 = 0.000e+000
                      i_l0 = 0.000e+000
                      i_v0 = 0.000e+000

***************** End of Operating Point Values ******************
